Version 4
SHEET 1 1772 680
WIRE 1296 -48 736 -48
WIRE 816 0 64 0
WIRE 928 0 896 0
WIRE 1152 0 1008 0
WIRE 1408 0 1200 0
WIRE 1584 0 1472 0
WIRE 1712 0 1584 0
WIRE 1584 16 1584 0
WIRE 560 96 352 96
WIRE 1056 96 560 96
WIRE 1152 96 1152 80
WIRE 1152 96 1056 96
WIRE 1168 96 1168 0
WIRE 1184 96 1184 0
WIRE 1200 96 1200 80
WIRE 1232 96 1200 96
WIRE 1584 96 1584 80
WIRE 1584 96 1232 96
WIRE 1712 96 1712 80
WIRE 1712 96 1584 96
WIRE 64 112 64 0
WIRE 560 112 560 96
WIRE 352 160 352 96
WIRE 1056 160 1056 96
WIRE 1104 160 1056 160
WIRE 1232 160 1232 96
WIRE 1232 160 1184 160
WIRE 560 208 560 192
WIRE 736 224 736 -48
WIRE 1296 224 1296 -48
WIRE 1296 224 736 224
WIRE 304 240 288 240
WIRE -80 256 -80 224
WIRE 64 272 64 192
WIRE 352 272 352 256
WIRE 352 272 64 272
WIRE 560 272 352 272
WIRE 64 304 64 272
FLAG 64 304 0
FLAG -80 256 0
FLAG -80 144 signal
FLAG 288 240 signal
SYMBOL voltage 64 96 R0
WINDOW 123 0 0 Left 0
WINDOW 39 0 0 Left 0
SYMATTR InstName V1
SYMATTR Value 30
SYMBOL nmos 304 160 R0
SYMATTR InstName M1
SYMATTR Value IRFZ48N
SYMBOL ind2 1168 96 R180
WINDOW 0 43 72 Left 2
WINDOW 3 41 36 Left 2
SYMATTR InstName L1
SYMATTR Value 30µ
SYMATTR Type ind
SYMATTR SpiceLine2 IC=0
SYMBOL ind2 1184 -16 R0
SYMATTR InstName L3
SYMATTR Value 7.5µ
SYMATTR Type ind
SYMBOL ind 912 16 R270
WINDOW 0 32 56 VTop 2
WINDOW 3 5 56 VBottom 2
SYMATTR InstName L4
SYMATTR Value 1.5µ
SYMATTR SpiceLine2 IC=0
SYMBOL res 912 -16 R90
WINDOW 0 0 56 VBottom 2
WINDOW 3 32 56 VTop 2
SYMATTR InstName R1
SYMATTR Value 0.1
SYMBOL voltage -80 128 R0
WINDOW 3 -31 -192 Left 2
WINDOW 123 0 0 Left 0
WINDOW 39 0 0 Left 0
SYMATTR InstName V2
SYMATTR Value PULSE(0 12 0 200ns 200ns 5us 10us)
SYMBOL res 1200 144 R90
WINDOW 0 0 56 VBottom 2
WINDOW 3 32 56 VTop 2
SYMATTR InstName R2
SYMATTR Value 1000k
SYMBOL cap 1568 16 R0
SYMATTR InstName C1
SYMATTR Value 77µf
SYMATTR SpiceLine2 IC=12
SYMBOL res 1696 -16 R0
SYMATTR InstName R3
SYMATTR Value 2.4
SYMBOL diode 1408 16 R270
WINDOW 0 32 32 VTop 2
WINDOW 3 0 32 VBottom 2
SYMATTR InstName D1
SYMBOL res 544 96 R0
SYMATTR InstName R4
SYMATTR Value 100
SYMBOL cap 544 208 R0
SYMATTR InstName C2
SYMATTR Value 100nF
TEXT 720 -56 VRight 2 ;Transformer-input
TEXT 1320 160 VLeft 2 ;Transformer-output
TEXT 1088 -32 Left 2 ;out/in = 0.5
TEXT 752 208 Left 2 !K L1 L3 1
TEXT -114 328 Left 2 !.tran 2ms
